23
0 1 C12H9NO
O                     1.224645407694     0.000000000000     0.000000000000
C                     0.000000000000     0.000000000000     0.000000000000
C                    -0.760110501590    -0.002819475689     1.289320013255
C                    -2.057150504549     0.519728083575     1.413812709911
C                    -2.688886350045     0.543863070760     2.657482610692
C                    -2.037792921735     0.036524768060     3.782911340696
C                    -0.743089758138    -0.479908680504     3.668450952804
C                    -0.104215098389    -0.488140326655     2.432901285208
C                    -0.728180277083    -0.002819475689    -1.319526061197
C                    -1.949383705198    -0.653633033844    -1.531099413132
C                    -2.494897162050    -0.655054479809    -2.816773049120
N                    -1.926859852214    -0.055204769744    -3.868540958186
C                    -0.754018673325     0.560066336321    -3.657856222741
C                    -0.113634605634     0.603502409614    -2.422111771109
H                    -2.563217900864     0.931978333837     0.546854932889
H                    -3.687833218906     0.961534432228     2.747025894920
H                    -2.534742954867     0.048442036214     4.749292066081
H                    -0.233084965624    -0.869718861406     4.545045046202
H                     0.907201143237    -0.866836747773     2.327074306511
H                    -2.458574882156    -1.169957720729    -0.724071781506
H                    -3.437831799801    -1.164732276011    -3.008135080915
H                    -0.303686670926     1.037702940283    -4.526208650542
H                     0.847107979492     1.092730006906    -2.301902246619
