18
36.389088751999736
C      0.000000    0.000000    0.000000
O      1.233838   -0.000000   -0.000000
C     -0.856176   -0.032884   -1.293424
O     -0.137209    0.287135   -2.474638
C      0.621671   -0.804131   -2.974028
O     -1.932757    0.892333   -1.114656
C     -2.892036    0.806641   -2.158981
C     -0.758680   -0.032884    1.304121
H     -1.278521   -1.044530   -1.364056
H     -0.039095   -1.630650   -3.253354
H      1.361379   -1.147433   -2.246592
H      1.150661   -0.469734   -3.870728
H     -3.298144   -0.207107   -2.229037
H     -2.455653    1.106301   -3.116290
H     -3.711555    1.492271   -1.926653
H     -0.058729   -0.177139    2.132138
H     -1.287108    0.911865    1.451020
H     -1.465031   -0.866794    1.297441

