13
1.2837200817370835
C     -1.307764   -1.405514   -1.600788
C     -0.786448   -0.016425   -1.292520
C      0.000000    0.000000    0.000000
O      1.230982    0.000000   -0.000000
C     -0.783089   -0.016425    1.286527
H     -2.013734   -1.743465   -0.835525
H     -1.823976   -1.413532   -2.565644
H     -0.489269   -2.131765   -1.642339
H     -1.607714    0.703932   -1.218871
H     -0.129165    0.326718   -2.099229
H     -1.288624   -0.977708    1.401566
H     -0.103659    0.131069    2.130780
H     -1.513303    0.796650    1.283572

