20
10.193947795575436
C     -1.446945    1.364835   -1.571114
C     -2.889804    1.043092   -1.942224
C     -3.178238   -0.259065   -1.216838
C     -1.883343   -1.041835   -1.380800
C     -0.772715    0.011234   -1.314478
C      0.000000    0.000000    0.000000
O      1.233212    0.000000   -0.000000
C     -0.764191    0.011234    1.300914
H     -1.418034    2.013594   -0.688829
H     -0.951235    1.909659   -2.381987
H     -3.579505    1.842315   -1.655920
H     -2.972695    0.896035   -3.025785
H     -3.381626   -0.068769   -0.157134
H     -4.037629   -0.787755   -1.639104
H     -1.788182   -1.840855   -0.640097
H     -1.873747   -1.514127   -2.371407
H     -0.043784   -0.198628   -2.107931
H     -0.064081    0.153708    2.129661
H     -1.480126    0.835265    1.317210
H     -1.279013   -0.940849    1.444074

