16
45.37344080092728
C      0.000000    0.000000    0.000000
O      1.230034    0.000000   -0.000000
C     -0.761821    0.000000   -1.281008
N     -2.116197   -0.000000   -1.187281
C     -2.802830   -0.000001   -2.350586
C     -2.204161   -0.000001   -3.600842
C     -0.814886   -0.000000   -3.669032
C     -0.075146    0.000000   -2.490170
C     -0.794992    0.000000    1.278787
H     -3.885073   -0.000001   -2.250652
H     -2.807455   -0.000002   -4.502456
H     -0.310755   -0.000000   -4.631696
H      1.010197    0.000001   -2.514884
H     -1.413769   -0.899250    1.338270
H     -0.107878   -0.000003    2.130483
H     -1.413764    0.899254    1.338272

