17
35.26812420445124
C     -0.012696   -0.000003   -2.487872
C     -0.668263   -0.000003   -3.720539
C     -2.060798   -0.000001   -3.768166
C     -2.798818    0.000001   -2.585248
C     -2.146101    0.000002   -1.348997
C     -0.746671   -0.000000   -1.293550
C      0.000000    0.000000    0.000000
O      1.229570   -0.000000   -0.000000
C     -0.776767   -0.000000    1.290672
H      1.075760   -0.000004   -2.463139
H     -0.090467   -0.000005   -4.641557
H     -2.571151   -0.000002   -4.728361
H     -3.885615    0.000003   -2.626125
H     -2.752570    0.000004   -0.448428
H     -1.391671   -0.900761    1.363108
H     -0.076033   -0.000001    2.131566
H     -1.391669    0.900762    1.363109

