14
25.338262947561113
C      0.000000    0.000000    0.000000
O      1.224722   -0.000000   -0.000000
C     -0.753531   -0.001091   -1.281041
C     -1.760785    1.079321   -1.594779
C     -0.450928    1.048366   -2.324948
C     -0.826323   -0.001091    1.253073
H     -0.956937   -0.998294   -1.658886
H     -1.915647    1.882035   -0.882709
H     -2.652839    0.796816   -2.142532
H      0.288494    1.806379   -2.088666
H     -0.448151    0.739736   -3.364029
H     -1.156156    1.016363    1.475890
H     -0.224569   -0.377299    2.085038
H     -1.692999   -0.656412    1.131933

