14
25.061580889763594
C      0.000000    0.000000    0.000000
O      1.225848   -0.000000    0.000000
C     -0.778663    0.000000   -1.272496
C     -0.262583    0.750970   -2.476729
C     -0.262579   -0.750962   -2.476732
C     -0.818279    0.000000    1.259068
H     -1.856989   -0.000003   -1.139420
H     -0.982044    1.260592   -3.106569
H      0.695960    1.253966   -2.400554
H     -0.982037   -1.260586   -3.106574
H      0.695967   -1.253953   -2.400559
H     -1.443148   -0.896109    1.292665
H     -0.154421   -0.000000    2.128054
H     -1.443147    0.896110    1.292665

