17
17.002974706310905
C      0.000000    0.000000    0.000000
O      1.230616   -0.000000    0.000000
C     -0.712852   -0.036671   -1.305837
C     -1.837123    0.616683   -1.655084
C     -2.429797    0.414480   -3.026245
C     -2.579268    1.609905   -0.805608
C     -0.783736   -0.036671    1.284528
H     -0.200894   -0.668008   -2.028926
H     -2.428833    1.356417   -3.584501
H     -3.462393    0.059914   -2.941996
H     -1.873939   -0.322269   -3.615886
H     -3.496580    1.161626   -0.411600
H     -1.983087    1.984473    0.029220
H     -2.854992    2.487227   -1.401306
H     -0.773304    0.950896    1.751366
H     -1.814137   -0.358978    1.115216
H     -0.321000   -0.763771    1.958661

