18
37.62517847297179
C      0.000000    0.000000    0.000000
O      1.233073    0.000000    0.000000
C     -0.797525    0.006213   -1.298484
N     -1.610722   -1.219355   -1.427752
C     -0.757225   -2.395405   -1.636110
C     -2.538615   -1.080619   -2.553000
C     -0.781378    0.006213    1.288967
H     -1.437472    0.896628   -1.266101
H     -0.108313    0.128211   -2.143158
H     -0.100098   -2.564362   -0.776554
H     -1.370298   -3.298531   -1.734773
H     -0.136222   -2.302443   -2.534541
H     -2.016628   -0.929762   -3.505007
H     -3.214221   -0.233210   -2.391375
H     -3.171061   -1.970978   -2.642516
H     -1.311883   -0.941122    1.408742
H     -1.489376    0.838713    1.285838
H     -0.096066    0.136157    2.131380

