171
Title Card Required
C          1.48080       -2.29220        0.51630
C          1.66090       -1.19300       -0.52040
O          2.26580       -0.13850       -0.20190
C          1.83310       -1.71750       -1.93230
C          0.99570       -2.65250       -2.52430
C          1.28200       -3.14810       -3.78350
C          2.41130       -2.71720       -4.46570
C          3.24970       -1.78760       -3.87930
C          2.95860       -1.29120       -2.61850
H          1.11430       -1.88920        1.44670
H          2.46650       -2.71770        0.69280
H          0.82780       -3.07160        0.17090
H          0.11680       -2.98120       -2.01130
H          0.62700       -3.87140       -4.22830
H          2.63510       -3.11010       -5.43810
H          4.12940       -1.45440       -4.39420
H          3.60230       -0.57890       -2.14590
Ru        -1.57250        0.22750       -1.11360
P         -3.06590       -1.73680       -1.83070
P         -2.74690        0.11980        1.18430
C         -4.21320        1.23930        1.51080
C         -4.40970        2.32620        0.68010
C         -3.92910       -4.19920        2.61880
C         -3.32140       -1.58540        1.77260
C         -9.14310       -0.48940        1.26290
C         -7.33370       -0.46000       -0.33030
C         -6.22710        3.05430        2.04340
C         -3.39280       -1.92110       -3.67970
C         -1.99570        1.29080        3.71870
C         -2.30810       -1.76540       -4.52400
C         -1.56500        0.67860        2.55050
C         -3.66440       -2.27490       -6.41810
C         -2.80720       -3.55300       -1.40090
C         -4.62060       -2.27130       -4.22870
C         -4.76570       -1.28420       -1.13720
C         -4.33150       -2.27490        1.14930
C         -2.60770       -2.20010        2.83340
C         -5.92390       -5.64800        1.32230
C         -4.63550       -3.61590        1.55130
C          0.72450        0.93410        3.28580
C         -5.63900       -4.38820        0.90690
C         -3.24400       -5.89830       -1.74430
C         -1.08880        1.71360        4.67700
C         -2.90850       -3.45230        3.25140
C         -8.33540       -1.23750        2.14420
C         -8.64720       -0.10390        0.06020
C         -5.05660        1.04980        2.59650
C         -5.41730        3.24550        0.93860
C         -6.06320        1.95660        2.87710
C         -5.56850       -0.44210       -1.95820
C         -6.80110       -0.05070       -1.57660
C         -6.52530       -1.21480        0.53700
C         -2.30740       -6.19840       -0.76730
C         -2.42950       -1.93540       -5.89660
C         -3.48170       -4.57150       -2.05720
C         -4.25020       -5.51700        3.03400
C         -5.19960       -1.60340        0.11770
C          0.26590        1.52690        4.45000
C         -0.20310        0.51430        2.34000
C         -1.87800       -3.87590       -0.42810
C         -5.22310       -6.22250        2.40660
C         -7.06600       -1.57790        1.79920
C         -4.76720       -2.44900       -5.59380
C         -1.61820       -5.20060       -0.10200
H         -3.79100        2.44130       -0.18480
H        -10.14220       -0.22710        1.54970
H         -3.03730        1.46170        3.88110
H         -1.35110       -1.52720       -4.11280
H         -5.47310       -2.40250       -3.59460
H         -1.82870       -1.65050        3.31680
H         -6.68490       -6.21710        0.82620
H         -6.16750       -3.95830        0.08320
H         -2.37300       -3.89370        4.06980
H         -8.72810       -1.53720        3.09570
H         -9.24350        0.47480       -0.61840
H         -4.92990        0.19200        3.22670
H         -5.16960       -0.10280       -2.88890
H         -7.39050        0.58310       -2.21060
H         -4.18590       -4.33900       -2.82720
H         -3.70550       -5.94310        3.85420
H          0.14160        0.07370        1.42760
H         -1.36850       -3.08880        0.08730
H         -5.46380       -7.21750        2.72460
H         -6.46490       -2.14040        2.47860
H         -0.06150       -0.80590       -0.61490
H         -2.92480        1.04450       -1.69700
N         -0.59880        2.14670       -0.61840
N         -0.43680        0.73940       -2.91770
C          0.73430        1.63450       -2.59250
C          0.21790        2.82890       -1.72040
H         -1.25960        2.80900       -0.23990
H          0.04590        1.90860        0.12060
H          1.34040        1.03500       -1.93700
H         -1.07380        1.17810       -3.56130
H         -0.07080       -0.10320       -3.32870
C          1.33010        3.58270       -0.94350
C          1.12650        4.89390       -0.50590
C          2.45960        2.92960       -0.47350
C          2.04070        5.53870        0.29440
H          0.24060        5.42030       -0.78980
C          3.38690        3.57620        0.33070
H          2.61630        1.89040       -0.66660
C          3.19230        4.88770        0.70890
H          1.87940        6.54480        0.62050
H          4.24190        3.02660        0.66400
C          1.56820        1.85740       -3.89940
H          1.89870        0.85190       -4.14000
O          4.05330        5.60970        1.49450
C          5.24810        5.00570        2.01320
H          5.73230        5.77380        2.59390
H          5.90610        4.68430        1.21520
H          5.01800        4.15960        2.64890
C         -0.66040        3.79460       -2.53500
C         -2.03250        3.60980       -2.67100
C         -0.09970        4.87600       -3.20130
C         -2.80160        4.46490       -3.43410
H         -2.50290        2.77060       -2.20310
C         -0.86230        5.74000       -3.96630
H          0.95000        5.06250       -3.12480
C         -2.22550        5.53950       -4.08770
H         -3.85560        4.31050       -3.53780
H         -0.37990        6.55990       -4.45560
O         -3.06520        6.33930       -4.81780
C         -2.55790        7.47340       -5.53750
H         -2.10460        8.19480       -4.86870
H         -1.83400        7.17450       -6.28570
H         -3.41380        7.91630       -6.01970
C          0.78860        2.35640       -5.13780
H         -0.07040        1.73340       -5.35570
H          0.45070        3.37200       -5.02310
H          1.44490        2.30840       -6.00110
C          2.85470        2.68850       -3.71660
H          3.47560        2.28780       -2.92710
H          3.42500        2.66260       -4.63960
H          2.64090        3.72070       -3.48200
H         -2.11750       -7.22590       -0.51840
C         -0.58940       -5.55450        0.95620
H         -0.86290       -6.47210        1.46370
H          0.38880       -5.69630        0.50660
H         -0.51320       -4.76860        1.69600
C         -4.01610       -7.00800       -2.43330
H         -3.37430       -7.85520       -2.64670
H         -4.82600       -7.35040       -1.79610
H         -4.44370       -6.66320       -3.36680
H         -3.77270       -2.40880       -7.47850
C         -1.23370       -1.72210       -6.80690
H         -1.23840       -0.71120       -7.20390
H         -0.30530       -1.86680       -6.26830
H         -1.25400       -2.41080       -7.64340
C         -6.11060       -2.82770       -6.19090
H         -6.03960       -3.76610       -6.73080
H         -6.86240       -2.93760       -5.41930
H         -6.44890       -2.06530       -6.88480
H          0.97480        1.86210        5.18480
C         -1.56330        2.38310        5.95430
H         -2.63990        2.49860        5.95510
H         -1.28530        1.79380        6.82240
H         -1.11830        3.36690        6.05920
C          2.21260        0.75480        3.03980
H          2.61960        0.00770        3.71570
H          2.39620        0.44280        2.02120
H          2.73810        1.68780        3.21540
H         -7.00510        3.76400        2.25730
C         -5.64330        4.42290        0.00770
H         -5.90280        5.31590        0.56480
H         -4.75630        4.63300       -0.57720
H         -6.45500        4.20710       -0.68070
C         -6.99230        1.75340        4.05930
H         -6.60830        0.99540        4.73110
H         -7.11300        2.67420        4.61950
H         -7.96880        1.43190        3.71460
