23
0 1 C12H9NO
O                     1.225609399480     0.000000000000     0.000000000000
C                     0.000000000000     0.000000000000     0.000000000000
C                    -0.754586563358    -0.001184202191     1.295103686213
C                    -2.039479086849     0.546702095926     1.433354013462
C                    -2.665053640907     0.568258549039     2.680375477488
C                    -2.019718994826     0.032784841503     3.796003662825
C                    -0.736728622304    -0.508859707337     3.668078322436
C                    -0.104011640117    -0.514458535632     2.429099548976
C                    -0.735323570936    -0.001184202191    -1.307810298949
C                    -1.972026157608    -0.625218018437    -1.513220900178
C                    -2.524449636111    -0.620971107307    -2.792420003254
C                    -1.825557917116     0.016384810493    -3.817723468135
N                    -0.639465496682     0.618279636262    -3.646748936876
C                    -0.113396888346     0.591179340440    -2.420719789259
H                    -2.539679096972     0.983527944424     0.574787078977
H                    -3.654122007394     1.006726536801     2.780410506268
H                    -2.511576735119     0.042884581680     4.765022351800
H                    -0.230506819815    -0.920126866092     4.537084712141
H                     0.899200093192    -0.911787972684     2.313516413899
H                    -2.480958309311    -1.124358993146    -0.694270988184
H                    -3.474957866570    -1.105783908732    -2.993890693468
H                    -2.231390914193     0.041559482688    -4.827766884862
H                     0.855803196128     1.066689625015    -2.291370180463
