21
10.512929488905906
C      0.000000    0.000000    0.000000
O      1.231397    0.000000    0.000000
C     -0.748326    0.003496   -1.304033
C     -2.092281    0.051874   -1.361390
C     -2.861260    0.085988   -2.652640
C     -1.988824    0.382217   -3.872240
C     -0.681756   -0.398586   -3.812467
C      0.108271   -0.057697   -2.545760
C     -0.767131    0.003496    1.297968
H     -2.702365    0.074652   -0.463208
H     -3.359963   -0.882211   -2.780946
H     -3.648723    0.845398   -2.585759
H     -2.536790    0.132721   -4.787818
H     -1.769112    1.456673   -3.915463
H     -0.898589   -1.474342   -3.832382
H     -0.071871   -0.180652   -4.696484
H      0.900097   -0.807203   -2.428410
H      0.598984    0.914943   -2.677224
H     -0.061286   -0.032668    2.133709
H     -1.409519   -0.878650    1.360391
H     -1.353875    0.921313    1.387028

