9
8.867329980422955
C     -1.316047   -0.000000   -2.298249
C     -0.720648    0.000000   -1.254711
C      0.000000    0.000000    0.000000
O      1.224099   -0.000000   -0.000000
C     -0.836126    0.000000    1.245120
H     -1.833376   -0.000000   -3.229749
H     -1.462338   -0.895800    1.273200
H     -0.183892    0.000000    2.123130
H     -1.462339    0.895800    1.273200

