17
0 1 C8F3H5O
O                     1.214904344612     0.000000000000     0.000000000000
C                     0.000000000000     0.000000000000     0.000000000000
C                    -0.825593699701     0.000004388029     1.234171552297
C                    -0.138993478007     0.000003039923     2.461174703163
C                    -0.842351290147     0.000006116064     3.659851628874
C                    -2.240876861524     0.000009565947     3.647352667490
C                    -2.930798284072     0.000010925976     2.433495534534
C                    -2.231087526719     0.000008857070     1.228562356242
C                    -0.720029750626     0.000004388029    -1.377582694470
F                     0.158316614424     0.000003935614    -2.379032536882
F                    -1.508885564840     1.091565300064    -1.504453728991
F                    -1.508890932974    -1.091551699931    -1.504457234044
H                     0.945894738368     0.000000356638     2.445850885982
H                    -0.305271439161     0.000005057110     4.604026167426
H                    -2.791996128828     0.000012191958     4.583902156400
H                    -4.016891470871     0.000013605268     2.424203466433
H                    -2.780468312727     0.000008949456     0.295191908335
