16
32.1311868665431
C     -0.922531   -1.427594   -4.090515
C     -0.610947   -0.007329   -3.657440
O      0.023196   -0.010464   -2.371795
C     -0.801978   -0.000123   -1.306631
O     -2.020795    0.005075   -1.314352
C      0.000000    0.000000    0.000000
O      1.224755   -0.000000    0.000000
C     -0.819424   -0.000123    1.257416
H     -0.013738   -2.038348   -4.088489
H     -1.354655   -1.440863   -5.095073
H     -1.627114   -1.902673   -3.400554
H      0.093615    0.446630   -4.361972
H     -1.512166    0.616705   -3.655417
H     -1.442350   -0.897321    1.293743
H     -1.440938    0.897998    1.294898
H     -0.154448   -0.001241    2.125817

