62
Title Card Required
C         -1.17080       -0.97390        0.02480
C         -0.59710       -0.59130        1.46430
H          0.40790       -1.00560        1.54050
C         -0.33580       -2.09880       -0.61910
C         -0.15520       -2.09910       -2.00960
C          0.21380       -3.15340        0.12310
C          0.56260       -3.11660       -2.63830
H         -0.57030       -1.28310       -2.59080
C          0.92910       -4.17750       -0.50510
H          0.09560       -3.18770        1.20290
C          1.10850       -4.16260       -1.88870
H          0.69620       -3.09240       -3.71690
H          1.34800       -4.98290        0.09240
H          1.66650       -4.95630       -2.37820
C         -2.65910       -1.40430        0.00030
C         -3.07050       -2.67070        0.44650
C         -3.63600       -0.53850       -0.50860
C         -4.41450       -3.04530        0.41490
H         -2.33730       -3.38470        0.80880
C         -4.98180       -0.91340       -0.54810
H         -3.33060        0.42730       -0.89290
C         -5.37960       -2.16620       -0.08130
H         -4.70390       -4.03080        0.77050
H         -5.71780       -0.22240       -0.95150
H         -6.42570       -2.45900       -0.11190
O         -1.05050        0.21450       -0.74520
B         -0.27640        1.24560       -0.11280
N         -0.45290        0.91350        1.45780
C         -1.43020       -0.91020        2.72030
H         -2.09960       -1.75670        2.56460
H         -0.75710       -1.17210        3.54050
C         -2.20560        0.39280        3.05350
H         -3.28900        0.24310        3.04540
H         -1.92880        0.75860        4.04600
C         -1.79250        1.39590        1.96520
H         -2.50330        1.37800        1.13720
H         -1.69500        2.42210        2.31970
B          0.69470        1.41720        2.43200
H          0.61130        2.61340        2.58990
H          0.74460        0.76950        3.45280
H          1.79600        1.19010        1.84400
O          1.22350        0.86860       -0.36450
C          2.27800        1.31940        0.22170
C          3.43250        0.37450        0.27650
C          4.65510        0.73250        0.87160
C          3.30180       -0.90080       -0.30010
C          5.72010       -0.16510        0.88830
H          4.77990        1.70360        1.33760
C          4.37220       -1.79200       -0.28800
C          5.58290       -1.42850        0.30690
H          4.25780       -2.77140       -0.74310
H          6.41600       -2.12570        0.31870
C          2.55730        2.80410        0.25950
H          3.00580        3.07030       -0.70710
H          1.64340        3.37610        0.39090
H          3.25990        3.07240        1.04810
H          2.36370       -1.17820       -0.76500
H          6.65720        0.12190        1.35620
C         -0.67520        2.72280       -0.60500
H         -0.39160        3.52350        0.08820
H         -0.21260        2.95310       -1.57340
H         -1.76030        2.79950       -0.74700
