12
4.790472833887096
O      1.221157    0.000000    0.000000
C      0.000000    0.000000    0.000000
C     -0.795648   -0.000000   -1.234246
C     -2.073339   -0.000000   -0.847471
C     -2.275427   -0.000000    0.634056
C     -0.868933   -0.000000    1.223199
H     -0.377994    0.000000   -2.225007
H     -2.904358   -0.000000   -1.541701
H     -2.834549    0.886548    0.950468
H     -2.834548   -0.886550    0.950468
H     -0.682408    0.898293    1.818210
H     -0.682408   -0.898293    1.818211

