23
0 1 C12H9NO
O                     1.227510741259     0.000000000000     0.000000000000
C                     0.000000000000     0.000000000000     0.000000000000
C                    -0.746102682344    -0.002731297482     1.298181791485
C                    -2.096056041743     0.358268091102     1.444907126035
C                    -2.681002089172     0.383811865209     2.711001015382
C                    -1.936260562404     0.041367505166     3.840260760026
C                    -0.592177995435    -0.318743881985     3.704314161844
C                    -0.001457639095    -0.331128735695     2.445762623297
C                    -0.696520453561    -0.002731297482    -1.345410440987
C                     0.072838941642     0.321264299749    -2.472568846235
C                    -0.527079760241     0.283190017655    -3.727118291269
C                    -1.868491587654    -0.088502707017    -3.817979515494
C                    -2.550167440902    -0.400008671195    -2.640318498092
N                    -1.988802413078    -0.357654775312    -1.428093569905
H                    -2.684026749290     0.607638551560     0.572289413498
H                    -3.724211494742     0.670370373802     2.813565979794
H                    -2.399553960801     0.056121071601     4.823518488720
H                    -0.006919094935    -0.584596545260     4.580490643807
H                     1.044335643137    -0.591750102797     2.322890027841
H                     1.115423392705     0.584579590882    -2.338810892791
H                     0.041265118616     0.534339724036    -4.618569163667
H                    -2.378288063691    -0.137702588119    -4.775563975964
H                    -3.596668997908    -0.698691978027    -2.671073609382
